
[General]

network = multipathdumbbelldelay
sim-time-limit = 25s
record-eventlog=false
cmdenv-express-mode = true
cmdenv-redirect-output = false
cmdenv-output-file = dctcpLog.txt
**.client*.tcp.conn-8.cmdenv-log-level = detail
cmdenv-log-prefix = %t | %m |

cmdenv-event-banners = false
**.cmdenv-log-level = off

**.**.tcp.conn-*.cwnd:vector(removeRepeats).vector-recording = true
**.**.tcp.conn-*.rtt:vector(removeRepeats).vector-recording = true
**.**.tcp.conn-*.srtt:vector(removeRepeats).vector-recording = true
**.**.tcp.conn-*.sndNxt:vector(removeRepeats).vector-recording = true
**.**.tcp.conn-*.throughput:vector(removeRepeats).vector-recording = true
**.**.tcp.conn-*.**.result-recording-modes = vector(removeRepeats)
**.**.goodput:vector(removeRepeats).vector-recording = true
**.**.goodput.result-recording-modes = vector(removeRepeats)
**.**.mbytesInFlight:vector(removeRepeats).vector-recording = true
**.**.mbytesInFlight.result-recording-modes = vector(removeRepeats)
**.scalar-recording=false
**.vector-recording=true
**.bin-recording=false 

**.goodputInterval = 1s
**.throughputInterval = 1s
**.tcp.typename = "MpTcp"
**.tcp.tcpAlgorithmClass = "MpTcpMetaCubic"
**.tcp.advertisedWindow = 200000000
**.tcp.windowScalingSupport = true
**.tcp.windowScalingFactor = -1
**.tcp.increasedIWEnabled = true
**.tcp.delayedAcksEnabled = false
**.tcp.timestampSupport = true
**.tcp.ecnWillingness = false
**.tcp.nagleEnabled = true
**.tcp.stopOperationTimeout = 4000s
**.tcp.mss = 1448
**.tcp.sackSupport = true
**.client[*].numApps = 1
**.client[*].app[*].typename  = "MpTcpSessionApp"
*.client[*].app[0].tClose = -1s
*.client[*].app[0].sendBytes = 2GB
*.client[*].app[0].dataTransferMode = "bytecount"
*.client[*].app[0].statistic-recording = true

**.server[*].numApps = 1
**.server[*].app[*].typename  = "MpTcpSinkApp"
**.server[*].app[*].serverThreadModuleType = "tcpgoodputapplications.applications.tcpapp.TcpGoodputSinkAppThread"

**.**.queue.typename = "DropTailQueue"

**.additiveIncreasePercent = 0.05
**.eta = 0.95

**.alpha = 0.01
**.fixedAvgRTTVal = 0

**.tcp.initialSsthresh = 5792000


[Config TwoSubflowsDefault]
extends = General 

**.numberOfSubflows = 2

*.client[0].app[0].connectAddress = "server[0]"
*.client[0].app[0].tOpen  = 0.00846919251197291s
*.client[0].app[0].tSend = 0.00846919251197291s
*.client[0].app[0].sendBytes = 2GB

**.ppp[*].queue.packetCapacity = 100

**.schedulerMode = "lowestRtt"

[Config TwoSubflowsDirectPull]
extends = General 

**.numberOfSubflows = 2

*.client[0].app[0].connectAddress = "server[0]"
*.client[0].app[0].tOpen  = 0.00846919251197291s
*.client[0].app[0].tSend = 0.00846919251197291s
*.client[0].app[0].sendBytes = 2GB

**.ppp[*].queue.packetCapacity = 100

**.schedulerMode = "directPull"


[Config FourSubflows]
extends = General 

**.numberOfSubflows = 4

*.client[0].app[0].connectAddress = "server[0]"
*.client[0].app[0].tOpen  = 0.00846919251197291s
*.client[0].app[0].tSend = 0.00846919251197291s
*.client[0].app[0].sendBytes = 2GB

**.ppp[*].queue.packetCapacity = 100


[Config EightSubflows]
extends = General 

**.numberOfSubflows = 8

*.client[0].app[0].connectAddress = "server[0]"
*.client[0].app[0].tOpen  = 0.00846919251197291s
*.client[0].app[0].tSend = 0.00846919251197291s
*.client[0].app[0].sendBytes = 2GB

**.ppp[*].queue.packetCapacity = 100


[Config SixteenSubflows]
extends = General 

**.numberOfSubflows = 16

*.client[0].app[0].connectAddress = "server[0]"
*.client[0].app[0].tOpen  = 0.00846919251197291s
*.client[0].app[0].tSend = 0.00846919251197291s
*.client[0].app[0].sendBytes = 2GB

**.ppp[*].queue.packetCapacity = 100


[Config ThirtyTwoSubflows]
extends = General 

**.numberOfSubflows = 32

*.client[0].app[0].connectAddress = "server[0]"
*.client[0].app[0].tOpen  = 0.00846919251197291s
*.client[0].app[0].tSend = 0.00846919251197291s
*.client[0].app[0].sendBytes = 2GB

**.ppp[*].queue.packetCapacity = 100

[Config TwoSubflowsTest]
extends = General 

**.numberOfSubflows = 2

*.client[0].app[0].connectAddress = "server[0]"
*.client[0].app[0].tOpen  = 0.00846919251197291s
*.client[0].app[0].tSend = 0.00846919251197291s
*.client[0].app[0].sendBytes = 2GB

**.ppp[*].queue.packetCapacity = 100

[Config ThirtyTwoSubflowsTest]
extends = General 

**.numberOfSubflows = 32

*.client[0].app[0].connectAddress = "server[0]"
*.client[0].app[0].tOpen  = 0.00846919251197291s
*.client[0].app[0].tSend = 0.00846919251197291s
*.client[0].app[0].sendBytes = 2GB

**.ppp[*].queue.packetCapacity = 100
